/*--------------------------------*- C++ -*----------------------------------*\
  =========                 |
  \\      /  F ield         | OpenFOAM: The Open Source CFD Toolbox
   \\    /   O peration     | Website:  https://openfoam.org
    \\  /    A nd           | Version:  8
     \\/     M anipulation  |
\*---------------------------------------------------------------------------*/
FoamFile
{
    version     2.0;
    format      ascii;
    class       volScalarField;
    object      omega;
}
// * * * * * * * * * * * * * * * * * * * * * * * * * * * * * * * * * * * * * //

dimensions      [0 0 -1 0 0 0 0];

internalField   uniform 1;

boundaryField
{
    inlet
    {
        type            fixedValue;
        value           uniform 1;
    }

    "(atmosphere|outlet)"
    {
        type            inletOutlet;
        inletValue      uniform 1;
        value           uniform 1;
    }

    "(front|back)"
    {
        type            cyclic;
    }

    "(walls|ground)"
    {
        type            omegaWallFunction;
        value           uniform 1;
    }

    empty
    {
        type            empty;
    }
}


// ************************************************************************* //
